omf/scratch/gosedPrototypes/OlinBeckenhamDebugged.glm
clock {
	timezone PST+8PDT;
	starttime '2000-01-01 00:00:00';
	stoptime '2000-01-01 00:00:00';
};

#set minimum_timestep=60;
#set profiler=1;
#set relax_naming_rules=1;
module generators;
module tape;
module residential {
	implicit_enduses NONE;
};

module powerflow {
	solver_method NR;
	NR_iteration_limit 50;
};

object node {
	phases ABCN;
	name BROMLEY;
	bustype SWING;
	longitude 109.866527217;
	nominal_voltage 7200.0;
	latitude 1102.95072772;
};

object overhead_line {
	phases ACB;
	from BROMLEY;
	name 8370;
	longitude 110.116783338;
	to node83698370;
	length 25.0635;
	latitude 1102.90202735;
	configuration 68266-LINECONFIG;
};

object overhead_line {
	phases ACB;
	from node83698370;
	name 8369;
	longitude 110.375852802;
	to node682628369;
	length 25.9559;
	latitude 1102.84802083;
	configuration 68266-LINECONFIG;
};

object overhead_line {
	phases ACB;
	from node682628369;
	name 68262;
	longitude 110.553802867;
	to node6826368262;
	length 21.6901;
	latitude 1102.50869651;
	configuration 68266-LINECONFIG;
};

object overhead_line {
	phases ACB;
	from node6826368262;
	name 68263;
	to nodeR139868263;
	longitude 110.76368136;
	length 25.5819;
	latitude 1102.10848464;
	configuration 68266-LINECONFIG;
};

object fuse {
	phases ACB;
	from nodeR139868263;
	name R1398;
	current_limit 9999.0 A;
	longitude 110.76368136;
	to node8586R1398;
	latitude 1102.10848464;
};

object overhead_line {
	phases ACB;
	from node8586R1398;
	name 8586;
	longitude 111.102888381;
	to node85808586;
	length 34.2101;
	latitude 1101.98021519;
	configuration 68266-LINECONFIG;
};

object overhead_line {
	phases ACB;
	from node85808586;
	name 8580;
	longitude 112.144052213;
	to node82588580;
	length 108.402;
	latitude 1102.81419574;
	configuration 8194-LINECONFIG;
};

object overhead_line {
	phases ACB;
	from node82588580;
	name 8258;
	longitude 112.015129987;
	to node85408258;
	length 106.998;
	latitude 1099.9139521;
	configuration 8194-LINECONFIG;
};

object overhead_line {
	phases ACB;
	from node85408258;
	name 8540;
	longitude 111.870297922;
	to node84948540;
	length 131.126;
	latitude 1096.35555118;
	configuration 8194-LINECONFIG;
};

object overhead_line {
	phases ACB;
	from node84948540;
	name 8494;
	longitude 111.725984577;
	to node81958494;
	length 131.563;
	latitude 1092.78497139;
	configuration 8194-LINECONFIG;
};

object overhead_line {
	phases ACB;
	from node81958494;
	name 8195;
	longitude 111.645321579;
	to node81948195;
	length 106.214;
	latitude 1089.89324694;
	configuration 8194-LINECONFIG;
};

object line_configuration {
	name 8194-LINECONFIG;
	spacing 71752-LINESPACING;
	conductor_A 8194_conductor_C;
	conductor_C 8194_conductor_C;
	conductor_B 8194_conductor_C;
};

object overhead_line_conductor {
	diameter 1.156;
	name 8194_conductor_C;
	geometric_mean_radius 0.048;
	resistance 0.203;
};

object overhead_line {
	phases ACB;
	from node81948195;
	name 8194;
	to node81858194;
	longitude 111.546522956;
	length 180.078;
	latitude 1084.98378478;
	configuration 8194-LINECONFIG;
};

object overhead_line {
	phases ACB;
	from node81858194;
	name 8185;
	longitude 114.084482336;
	to node83378185;
	length 255.533;
	latitude 1084.11323773;
	configuration 68266-LINECONFIG;
};

object overhead_line {
	phases ACB;
	from node83378185;
	name 8337;
	longitude 116.903601049;
	to node82308337;
	length 284.126;
	latitude 1083.08594394;
	configuration 68266-LINECONFIG;
};

object overhead_line {
	phases ACB;
	from node82308337;
	name 8230;
	longitude 116.606383413;
	to node73548230;
	length 180.361;
	latitude 1078.2285568;
	configuration 68266-LINECONFIG;
};

object overhead_line {
	phases ACB;
	from node73548230;
	name 7354;
	longitude 116.205726784;
	to node81087354;
	length 245.509;
	latitude 1071.61483534;
	configuration 68266-LINECONFIG;
};

object overhead_line {
	phases ACB;
	from node81087354;
	name 8108;
	longitude 115.700161762;
	to node80688108;
	length 320.366;
	latitude 1062.97692677;
	configuration 68266-LINECONFIG;
};

object overhead_line {
	phases ACB;
	from node80688108;
	name 8068;
	longitude 115.000505889;
	to node79418068;
	length 300.212;
	latitude 1055.0051764;
	configuration 68266-LINECONFIG;
};

object overhead_line {
	phases ACB;
	from node79418068;
	name 7941;
	longitude 114.592275591;
	to node74767941;
	length 285.923;
	latitude 1047.27813269;
	configuration 68266-LINECONFIG;
};

object overhead_line {
	phases ACB;
	from node74767941;
	name 7476;
	to node77527476;
	longitude 114.057981215;
	length 399.581;
	latitude 1036.46571134;
	configuration 68266-LINECONFIG;
};

object overhead_line {
	phases ACB;
	from node77527476;
	name 7752;
	longitude 113.775507673;
	to node77337752;
	length 184.545;
	latitude 1031.4861325;
	configuration 68266-LINECONFIG;
};

object overhead_line {
	phases ACB;
	from node77337752;
	name 7733;
	longitude 113.08542153;
	to node73097733;
	length 512.78;
	latitude 1017.61225453;
	configuration 68266-LINECONFIG;
};

object overhead_line {
	phases ACB;
	from node73097733;
	name 7309;
	longitude 112.314008258;
	to node72137309;
	length 533.965;
	latitude 1003.1854809;
	configuration 68266-LINECONFIG;
};

object overhead_line {
	phases ACB;
	from node72137309;
	name 7213;
	longitude 111.778145505;
	to node75267213;
	length 303.385;
	latitude 995.031792862;
	configuration 68266-LINECONFIG;
};

object overhead_line {
	phases ACB;
	from node75267213;
	name 7526;
	longitude 111.337384354;
	to node65167526;
	length 240.809;
	latitude 988.567572154;
	configuration 68266-LINECONFIG;
};

object overhead_line {
	phases ACB;
	from node65167526;
	name 6516;
	longitude 110.873782446;
	to node71876516;
	length 257.081;
	latitude 981.663051748;
	configuration 68266-LINECONFIG;
};

object overhead_line {
	phases ACB;
	from node71876516;
	name 7187;
	longitude 110.595374954;
	to node71477187;
	length 183.125;
	latitude 976.72100934;
	configuration 68266-LINECONFIG;
};

object overhead_line {
	phases ACB;
	from node71477187;
	name 7147;
	to node69777147;
	longitude 111.175032528;
	length 168.042;
	latitude 972.413793103;
	configuration 68266-LINECONFIG;
};

object overhead_line {
	phases ACB;
	from node69777147;
	name 6977;
	longitude 112.314943053;
	to node68466977;
	length 390.474;
	latitude 962.215724866;
	configuration 68266-LINECONFIG;
};

object overhead_line {
	phases ACB;
	from node68466977;
	name 6846;
	longitude 112.106295677;
	to node67136846;
	length 434.375;
	latitude 950.369180373;
	configuration 68266-LINECONFIG;
};

object overhead_line {
	phases ACB;
	from node67136846;
	name 6713;
	longitude 111.942690126;
	to node67146713;
	length 452.545;
	latitude 938.020910363;
	configuration 68266-LINECONFIG;
};

object overhead_line {
	phases C;
	from node67146713;
	name 6714;
	longitude 112.10165103;
	to nodeF90486714;
	length 19.3827;
	latitude 938.324368123;
	configuration 71710-LINECONFIG;
};

object fuse {
	phases C;
	from nodeF90486714;
	name F9048;
	current_limit 9999.0 A;
	longitude 112.10165103;
	to node6715F9048;
	latitude 938.324368123;
};

object overhead_line {
	phases C;
	from node6715F9048;
	name 6715;
	longitude 113.902195557;
	to nodeT121590159036715;
	length 219.546;
	latitude 941.761573916;
	configuration 71710-LINECONFIG;
};

object overhead_line {
	phases ACB;
	from node67146713;
	name 6475;
	longitude 111.571684205;
	to node64716475;
	length 444.672;
	latitude 925.921808266;
	configuration 68266-LINECONFIG;
};

object overhead_line {
	phases C;
	from node64716475;
	name 6471;
	longitude 111.717443731;
	to nodeF89296471;
	length 25.0003;
	latitude 925.36692949;
	configuration 71710-LINECONFIG;
};

object fuse {
	phases C;
	from nodeF89296471;
	name F8929;
	current_limit 9999.0 A;
	longitude 111.717443731;
	to node6463F8929;
	latitude 925.36692949;
};

object overhead_line {
	phases C;
	from node6463F8929;
	name 6463;
	longitude 112.220788463;
	to node61116463;
	length 86.333;
	latitude 923.450773738;
	configuration 71710-LINECONFIG;
};

object overhead_line {
	phases C;
	from node61116463;
	name 6111;
	longitude 114.156207353;
	to node63646111;
	length 343.566;
	latitude 915.696424305;
	configuration 71710-LINECONFIG;
};

object overhead_line {
	phases C;
	from node63646111;
	name 6364;
	longitude 115.948349727;
	to node62406364;
	length 325.005;
	latitude 908.290208362;
	configuration 71710-LINECONFIG;
};

object overhead_line {
	phases ACB;
	from node64716475;
	name 6147;
	longitude 110.190897275;
	to node63486147;
	length 319.893;
	latitude 918.041160878;
	configuration 68266-LINECONFIG;
};

object overhead_line {
	phases ACB;
	from node63486147;
	name 6348;
	longitude 108.034318204;
	to node62636348;
	length 494.97;
	latitude 905.873781963;
	configuration 68266-LINECONFIG;
};

object overhead_line {
	phases ACB;
	from node62636348;
	name 6263;
	longitude 107.433405355;
	to node63196263;
	length 133.552;
	latitude 902.616407349;
	configuration 68266-LINECONFIG;
};

object overhead_line {
	phases A;
	from node63196263;
	name 6319;
	longitude 107.270309971;
	to nodeF55416319;
	length 19.2755;
	latitude 902.89763889;
	configuration 4824-LINECONFIG;
};

object fuse {
	phases A;
	from nodeF55416319;
	name F5541;
	current_limit 9999.0 A;
	longitude 107.270309971;
	to node6318F5541;
	latitude 902.89763889;
};

object overhead_line {
	phases A;
	from node6318F5541;
	name 6318;
	longitude 105.047695298;
	to nodeT121751883676318;
	length 262.678;
	latitude 906.729998694;
	configuration 4824-LINECONFIG;
};

object overhead_line {
	phases ACB;
	from node63196263;
	name 6262;
	longitude 106.550299403;
	to node60296262;
	length 196.269;
	latitude 897.829321844;
	configuration 68266-LINECONFIG;
};

object overhead_line {
	phases ACB;
	from node60296262;
	name 6029;
	longitude 105.075348111;
	to node58226029;
	length 313.199;
	latitude 890.283155913;
	configuration 68266-LINECONFIG;
};

object overhead_line {
	phases ACB;
	from node58226029;
	name 5822;
	longitude 105.353446447;
	to node60915822;
	length 105.836;
	latitude 887.494744941;
	configuration 68266-LINECONFIG;
};

object overhead_line {
	phases ACB;
	from node60915822;
	name 6091;
	longitude 106.327259245;
	to node57876091;
	length 368.088;
	latitude 877.801795242;
	configuration 68266-LINECONFIG;
};

object overhead_line {
	phases ACB;
	from node57876091;
	name 5787;
	longitude 107.4759324;
	to node59755787;
	length 458.346;
	latitude 865.685623108;
	configuration 68266-LINECONFIG;
};

object overhead_line {
	phases ACB;
	from node59755787;
	name 5975;
	longitude 108.055589974;
	to node59265975;
	length 212.18;
	latitude 860.1121742;
	configuration 68266-LINECONFIG;
};

object overhead_line {
	phases ACB;
	from node59265975;
	name 5926;
	to node58815926;
	longitude 108.221071224;
	length 335.407;
	latitude 850.965319123;
	configuration 68266-LINECONFIG;
};

object overhead_line {
	phases ACB;
	from node58815926;
	name 5881;
	longitude 108.374037833;
	to node58325881;
	length 275.923;
	latitude 843.443049245;
	configuration 68266-LINECONFIG;
};

object overhead_line {
	phases ACB;
	from node58325881;
	name 5832;
	longitude 108.546087696;
	to node57555832;
	length 298.87;
	latitude 835.296192221;
	configuration 68266-LINECONFIG;
};

object overhead_line {
	phases ACB;
	from node57555832;
	name 5755;
	longitude 108.711256736;
	to node48895755;
	length 369.369;
	latitude 825.220998937;
	configuration 68266-LINECONFIG;
};

object overhead_line {
	phases ACB;
	from node48895755;
	name 4889;
	longitude 109.667239396;
	to node55654889;
	length 191.945;
	latitude 820.674860474;
	configuration 68266-LINECONFIG;
};

object overhead_line {
	phases ACB;
	from node55654889;
	name 5565;
	longitude 109.729921345;
	to nodeSW1082-Bx15565;
	length 18.1269;
	latitude 820.210391408;
	configuration 68266-LINECONFIG;
};

object switch {
	status CLOSED;
	phases ACB;
	from nodeSW1082-Bx15565;
	name SW1082-Bx1;
	longitude 109.729921345;
	to nodeSW1082-Ax1SW1082-Bx1;
	latitude 820.210391408;
};

object switch {
	status CLOSED;
	phases ACB;
	from nodeSW1082-Ax1SW1082-Bx1;
	name SW1082-Ax1;
	longitude 109.729921345;
	to node5564SW1082-Ax1;
	latitude 820.210391408;
};

object overhead_line {
	phases ACB;
	from node5564SW1082-Ax1;
	name 5564;
	to node55605564;
	longitude 110.487138571;
	length 218.97;
	latitude 814.599711032;
	configuration 68266-LINECONFIG;
};

object overhead_line {
	phases ACB;
	from node55605564;
	name 5560;
	longitude 111.349269077;
	to node55595560;
	length 88.0892;
	latitude 814.09459749;
	configuration 68266-LINECONFIG;
};

object overhead_line {
	phases ACB;
	from node55595560;
	name 5559;
	longitude 112.133198821;
	to node55685559;
	length 82.7553;
	latitude 814.82497623;
	configuration 6396-LINECONFIG;
};

object overhead_line {
	phases ACB;
	from node55685559;
	name 5568;
	longitude 116.585878419;
	to node55875568;
	length 477.361;
	latitude 819.555405472;
	configuration 6396-LINECONFIG;
};

object overhead_line {
	phases ACB;
	from node55875568;
	name 5587;
	longitude 121.364522725;
	to node57545587;
	length 518.403;
	latitude 825.074239589;
	configuration 6396-LINECONFIG;
};

object overhead_line {
	phases ACB;
	from node57545587;
	name 5754;
	longitude 126.449413071;
	to node53415754;
	length 551.06;
	latitude 830.907063789;
	configuration 6396-LINECONFIG;
};

object overhead_line {
	phases ACB;
	from node53415754;
	name 5341;
	longitude 131.252450628;
	to node58485341;
	length 537.442;
	latitude 837.518060501;
	configuration 6396-LINECONFIG;
};

object overhead_line {
	phases ACB;
	from node58485341;
	name 5848;
	longitude 134.061891467;
	to node58695848;
	length 317.932;
	latitude 841.596611857;
	configuration 6396-LINECONFIG;
};

object overhead_line {
	phases ACB;
	from node58695848;
	name 5869;
	to node59005869;
	longitude 137.799464809;
	length 418.542;
	latitude 846.76049313;
	configuration 6396-LINECONFIG;
};

object overhead_line {
	phases ACB;
	from node59005869;
	name 5900;
	longitude 140.805984176;
	to node59305900;
	length 340.128;
	latitude 851.118904488;
	configuration 6396-LINECONFIG;
};

object overhead_line {
	phases ACB;
	from node59305900;
	name 5930;
	longitude 145.703181821;
	to node59675930;
	length 548.488;
	latitude 857.890305919;
	configuration 6396-LINECONFIG;
};

object overhead_line {
	phases ACB;
	from node59675930;
	name 5967;
	longitude 148.742228374;
	to node59925967;
	length 345.714;
	latitude 862.405715651;
	configuration 6396-LINECONFIG;
};

object overhead_line {
	phases ACB;
	from node59925967;
	name 5992;
	longitude 152.040604056;
	to node53665992;
	length 373.559;
	latitude 867.211231072;
	configuration 6396-LINECONFIG;
};

object overhead_line {
	phases ACB;
	from node53665992;
	name 5366;
	longitude 154.893209188;
	to node53745366;
	length 286.085;
	latitude 867.900658711;
	configuration 6396-LINECONFIG;
};

object overhead_line {
	phases ACB;
	from node53745366;
	name 5374;
	longitude 156.966582987;
	to node60945374;
	length 207.983;
	latitude 868.416029598;
	configuration 6396-LINECONFIG;
};

object overhead_line {
	phases ACB;
	from node60945374;
	name 6094;
	longitude 160.453277622;
	to node61036094;
	length 350.029;
	latitude 869.361432845;
	configuration 6396-LINECONFIG;
};

object overhead_line {
	phases ACB;
	from node61036094;
	name 6103;
	to node59946103;
	longitude 165.798119682;
	length 536.32;
	latitude 870.740281459;
	configuration 6396-LINECONFIG;
};

object overhead_line {
	phases ACB;
	from node59946103;
	name 5994;
	longitude 170.164462751;
	to node60045994;
	length 438.401;
	latitude 871.941660315;
	configuration 6396-LINECONFIG;
};

object overhead_line {
	phases ACB;
	from node60045994;
	name 6004;
	longitude 172.125849991;
	to node60066004;
	length 197.007;
	latitude 872.501393645;
	configuration 6396-LINECONFIG;
};

object overhead_line {
	phases ACB;
	from node60066004;
	name 6006;
	longitude 173.962729922;
	to node53696006;
	length 184.628;
	latitude 873.057713967;
	configuration 6396-LINECONFIG;
};

object overhead_line {
	phases ACB;
	from node53696006;
	name 5369;
	longitude 176.7583969;
	to node59685369;
	length 347.928;
	latitude 867.392120502;
	configuration 6396-LINECONFIG;
};

object overhead_line {
	phases ACB;
	from node59685369;
	name 5968;
	longitude 181.133502598;
	to node59125968;
	length 548.936;
	latitude 858.323757949;
	configuration 6396-LINECONFIG;
};

object overhead_line {
	phases ACB;
	from node59125968;
	name 5912;
	longitude 185.891808707;
	to node59105912;
	length 594.475;
	latitude 848.576206783;
	configuration 6396-LINECONFIG;
};

object overhead_line {
	phases B;
	from node59105912;
	name 5910;
	longitude 185.789840335;
	to nodeF83705910;
	length 24.9996;
	latitude 847.95284952;
	configuration 3132-LINECONFIG;
};

object fuse {
	phases B;
	from nodeF83705910;
	name F8370;
	current_limit 9999.0 A;
	longitude 185.789840335;
	to node5862F8370;
	latitude 847.95284952;
};

object overhead_line {
	phases B;
	from node5862F8370;
	name 5862;
	longitude 184.6133158;
	to node55695862;
	length 288.451;
	latitude 840.760408214;
	configuration 3132-LINECONFIG;
};

object overhead_line {
	phases B;
	from node55695862;
	name 5569;
	longitude 180.639871177;
	to node47325569;
	length 1024.75;
	latitude 814.9649029;
	configuration 3132-LINECONFIG;
};

object overhead_line {
	phases B;
	from node47325569;
	name 4732;
	longitude 179.930397516;
	to nodeT121582306934732;
	length 186.955;
	latitude 810.241299673;
	configuration 3132-LINECONFIG;
};

object overhead_line {
	phases ACB;
	from node59105912;
	name 5877;
	longitude 188.839515442;
	to node58425877;
	length 362.115;
	latitude 842.821881769;
	configuration 6396-LINECONFIG;
};

object overhead_line {
	phases ACB;
	from node58425877;
	name 5842;
	longitude 191.625180116;
	to node53365842;
	length 349.381;
	latitude 837.053891398;
	configuration 6396-LINECONFIG;
};

object overhead_line {
	phases ACB;
	from node53365842;
	name 5336;
	to node57505336;
	longitude 195.166304235;
	length 436.664;
	latitude 830.064045789;
	configuration 6396-LINECONFIG;
};

object overhead_line {
	phases ACB;
	from node57505336;
	name 5750;
	longitude 197.988566423;
	to node55755750;
	length 353.051;
	latitude 824.261936996;
	configuration 6396-LINECONFIG;
};

object overhead_line {
	phases ACB;
	from node55755750;
	name 5575;
	longitude 201.90131905;
	to node46135575;
	length 486.93;
	latitude 816.333525815;
	configuration 6396-LINECONFIG;
};

object overhead_line {
	phases ACB;
	from node46135575;
	name 4613;
	longitude 208.642906754;
	to node48774613;
	length 837.743;
	latitude 802.729263823;
	configuration 6396-LINECONFIG;
};

object overhead_line {
	phases ACB;
	from node48774613;
	name 4877;
	longitude 211.636282177;
	to node57104877;
	length 377.71;
	latitude 796.428867505;
	configuration 6396-LINECONFIG;
};

object overhead_line {
	phases ACB;
	from node57104877;
	name 5710;
	longitude 215.782403525;
	to node56915710;
	length 511.348;
	latitude 788.241056048;
	configuration 6396-LINECONFIG;
};

object overhead_line {
	phases ACB;
	from node56915710;
	name 5691;
	longitude 219.898488028;
	to node56785691;
	length 511.139;
	latitude 779.950859345;
	configuration 6396-LINECONFIG;
};

object overhead_line {
	phases ACB;
	from node56785691;
	name 5678;
	longitude 222.035363096;
	to node56705678;
	length 277.624;
	latitude 775.104381165;
	configuration 6396-LINECONFIG;
};

object overhead_line {
	phases ACB;
	from node56705678;
	name 5670;
	to node56695670;
	longitude 223.159323458;
	length 135.026;
	latitude 773.056576298;
	configuration 6396-LINECONFIG;
};

object overhead_line {
	phases ACB;
	from node56695670;
	name 5669;
	longitude 228.700622684;
	to node56835669;
	length 563.62;
	latitude 775.95080218;
	configuration 6396-LINECONFIG;
};

object overhead_line {
	phases ACB;
	from node56835669;
	name 5683;
	longitude 233.146108029;
	to node56755683;
	length 454.431;
	latitude 778.58223643;
	configuration 6396-LINECONFIG;
};

object overhead_line {
	phases C;
	from node56755683;
	name 5675;
	longitude 233.289000241;
	to nodeF68265675;
	length 19.4803;
	latitude 778.220299262;
	configuration 8736-LINECONFIG;
};

object fuse {
	phases C;
	from nodeF68265675;
	name F6826;
	current_limit 9999.0 A;
	longitude 233.289000241;
	to node5676F6826;
	latitude 778.220299262;
};

object overhead_line {
	phases C;
	from node5676F6826;
	name 5676;
	longitude 234.772460609;
	to nodeT121421648495676;
	length 202.239;
	latitude 774.46273564;
	configuration 8736-LINECONFIG;
};

object overhead_line {
	phases ACB;
	from node56755683;
	name 5689;
	to node57165689;
	longitude 236.457309337;
	length 557.588;
	latitude 790.838343563;
	configuration 6396-LINECONFIG;
};

object overhead_line {
	phases ACB;
	from node57165689;
	name 5716;
	longitude 236.601058138;
	to nodeSW1482-Bx15716;
	length 25.0001;
	latitude 791.397105305;
	configuration 6396-LINECONFIG;
};

object switch {
	status CLOSED;
	phases ACB;
	from nodeSW1482-Bx15716;
	name SW1482-Bx1;
	longitude 236.601058138;
	to nodeSW1482-Ax1SW1482-Bx1;
	latitude 791.397105305;
};

object switch {
	status CLOSED;
	phases ACB;
	from nodeSW1482-Ax1SW1482-Bx1;
	name SW1482-Ax1;
	longitude 236.601058138;
	to node5719SW1482-Ax1;
	latitude 791.397105305;
};

object overhead_line {
	phases ACB;
	from node5719SW1482-Ax1;
	name 5719;
	longitude 238.534749186;
	to node46025719;
	length 336.3;
	latitude 798.913532413;
	configuration 6396-LINECONFIG;
};

object overhead_line {
	phases ACB;
	from node46025719;
	name 4602;
	longitude 240.361306665;
	to node48854602;
	length 465.963;
	latitude 810.620143574;
	configuration 6396-LINECONFIG;
};

object overhead_line {
	phases ACB;
	from node48854602;
	name 4885;
	longitude 240.845594417;
	to node685334885;
	length 121.687;
	latitude 813.668828059;
	configuration 6396-LINECONFIG;
};

object overhead_line {
	phases ACB;
	from node685334885;
	name 68533;
	longitude 240.879845169;
	to nodeVR1068533;
	length 10;
	latitude 813.884459182;
	configuration 6396-LINECONFIG;
};

object regulator_configuration {
	Control OUTPUT_VOLTAGE;
	Type A;
	raise_taps 16.0;
	name VR10-CONFIG;
	band_center 126.0;
	current_transducer_ratio 150;
	tap_pos_B 1;
	tap_pos_C 1;
	time_delay 30.0;
	connect_type WYE_WYE;
	regulation 0.1;
	CT_phase ABC;
	power_transducer_ratio 60.0;
	lower_taps 16.0;
	tap_pos_A 1;
	control_level INDIVIDUAL;
	PT_phase ABC;
	band_width 2.000004;
};

object regulator {
	phases ACB;
	from nodeVR1068533;
	name VR10;
	to node68532VR10;
	longitude 240.879845169;
	latitude 813.884459182;
	configuration VR10-CONFIG;
};

object overhead_line {
	phases ACB;
	from node68532VR10;
	name 68532;
	longitude 240.911283594;
	to node555568532;
	length 10;
	latitude 814.08237032;
	configuration 6396-LINECONFIG;
};

object overhead_line {
	phases ACB;
	from node555568532;
	name 5555;
	longitude 241.783385853;
	to node48885555;
	length 219.135;
	latitude 819.572463851;
	configuration 6396-LINECONFIG;
};

object overhead_line {
	phases ACB;
	from node48885555;
	name 4888;
	longitude 242.982112675;
	to node53224888;
	length 290.687;
	latitude 826.804639698;
	configuration 6396-LINECONFIG;
};

object overhead_line {
	phases ACB;
	from node53224888;
	name 5322;
	longitude 244.323487319;
	to node57655322;
	length 329.137;
	latitude 835.012912547;
	configuration 6396-LINECONFIG;
};

object overhead_line {
	phases ACB;
	from node57655322;
	name 5765;
	longitude 245.975492374;
	to node58565765;
	length 224.195;
	latitude 839.156299398;
	configuration 6396-LINECONFIG;
};

object overhead_line {
	phases ACB;
	from node58565765;
	name 5856;
	longitude 248.676380343;
	to node58935856;
	length 368.595;
	latitude 846.013037691;
	configuration 6396-LINECONFIG;
};

object overhead_line {
	phases ACB;
	from node58935856;
	name 5893;
	longitude 251.308758867;
	to node59375893;
	length 361.121;
	latitude 852.770788755;
	configuration 6396-LINECONFIG;
};

object overhead_line {
	phases ACB;
	from node59375893;
	name 5937;
	to node59705937;
	longitude 253.77034003;
	length 330.622;
	latitude 858.805003752;
	configuration 6396-LINECONFIG;
};

object overhead_line {
	phases ACB;
	from node59705937;
	name 5970;
	longitude 256.166230185;
	to node57825970;
	length 326.535;
	latitude 864.86991417;
	configuration 6396-LINECONFIG;
};

object overhead_line {
	phases ACB;
	from node57825970;
	name 5782;
	longitude 256.353855679;
	to nodeSW1481-Bx15782;
	length 25.0001;
	latitude 865.321621124;
	configuration 6396-LINECONFIG;
};

object switch {
	status CLOSED;
	phases ACB;
	from nodeSW1481-Bx15782;
	name SW1481-Bx1;
	longitude 256.353855679;
	to nodeSW1481-Ax1SW1481-Bx1;
	latitude 865.321621124;
};

object switch {
	status CLOSED;
	phases ACB;
	from nodeSW1481-Ax1SW1481-Bx1;
	name SW1481-Ax1;
	longitude 256.353855679;
	to node5785SW1481-Ax1;
	latitude 865.321621124;
};

object overhead_line {
	phases ACB;
	from node5785SW1481-Ax1;
	name 5785;
	longitude 256.923256786;
	to node53615785;
	length 75.8696;
	latitude 866.692453839;
	configuration 6396-LINECONFIG;
};

object overhead_line {
	phases B;
	from node53615785;
	name 5361;
	longitude 259.961992352;
	to node60225361;
	length 410.865;
	latitude 874.25226181;
	configuration 3132-LINECONFIG;
};

object overhead_line {
	phases B;
	from node60225361;
	name 6022;
	longitude 259.801313991;
	to nodeF89656022;
	length 18.7695;
	latitude 874.517891507;
	configuration 3132-LINECONFIG;
};

object fuse {
	phases B;
	from nodeF89656022;
	name F8965;
	current_limit 9999.0 A;
	longitude 259.801313991;
	to node6023F8965;
	latitude 874.517891507;
};

object overhead_line {
	phases B;
	from node6023F8965;
	name 6023;
	longitude 257.145986567;
	to nodeT121431837586023;
	length 310.179;
	latitude 878.907616533;
	configuration 3132-LINECONFIG;
};

object overhead_line {
	phases B;
	from node6023F8965;
	name 6026;
	longitude 258.113541129;
	to nodeT121431847336026;
	length 358.738;
	latitude 883.163637648;
	configuration 3132-LINECONFIG;
};

object overhead_line {
	phases B;
	from node60225361;
	name 6024;
	longitude 263.234399684;
	to node62146024;
	length 437.995;
	latitude 882.211401722;
	configuration 3132-LINECONFIG;
};

object overhead_line {
	phases B;
	from node62146024;
	name 6214;
	to node62136214;
	longitude 263.364238376;
	length 13.3912;
	latitude 882.120485384;
	configuration 3132-LINECONFIG;
};

object overhead_line {
	phases B;
	from node62136214;
	name 6213;
	longitude 263.42352757;
	to nodeSW1514-Bx16213;
	length 14.0651;
	latitude 882.468808856;
	configuration 3132-LINECONFIG;
};

object overhead_line {
	phases B;
	from node62146024;
	name 67644;
	longitude 263.28102516;
	to nodeR104467644;
	length 10.3306;
	latitude 882.463172723;
	configuration 3132-LINECONFIG;
};

object fuse {
	phases B;
	from nodeR104467644;
	name R1044;
	current_limit 9999.0 A;
	longitude 263.281023327;
	to node67645R1044;
	latitude 882.463172723;
};

object overhead_line {
	phases B;
	from node67645R1044;
	name 67645;
	longitude 263.346122301;
	to node621967645;
	length 14.4232;
	latitude 882.81468591;
	configuration 3132-LINECONFIG;
};

object overhead_line {
	phases B;
	from node621967645;
	name 6219;
	longitude 265.304960546;
	to node60736219;
	length 434.021;
	latitude 893.392416296;
	configuration 3132-LINECONFIG;
};

object overhead_line {
	phases B;
	from node60736219;
	name 6057;
	to node63356057;
	longitude 267.509092558;
	length 478.763;
	latitude 905.000056883;
	configuration 3132-LINECONFIG;
};

object overhead_line {
	phases B;
	from node63356057;
	name 6335;
	longitude 269.601860595;
	to node61226335;
	length 465.802;
	latitude 916.365373895;
	configuration 3132-LINECONFIG;
};

object overhead_line {
	phases B;
	from node61226335;
	name 6122;
	longitude 271.093387079;
	to node65366122;
	length 210.806;
	latitude 920.437092572;
	configuration 3132-LINECONFIG;
};

object overhead_line {
	phases B;
	from node65366122;
	name 6536;
	longitude 277.508702754;
	to node67116536;
	length 903.07;
	latitude 937.809298863;
	configuration 3132-LINECONFIG;
};

object overhead_line {
	phases B;
	from node67116536;
	name 6711;
	longitude 282.245420607;
	to node65136711;
	length 673.133;
	latitude 950.881119931;
	configuration 3132-LINECONFIG;
};

object overhead_line {
	phases B;
	from node65136711;
	name 6513;
	longitude 283.463544722;
	to node68706513;
	length 170.203;
	latitude 954.130315312;
	configuration 3132-LINECONFIG;
};

object overhead_line {
	phases B;
	from node68706513;
	name 6870;
	longitude 286.316150464;
	to node69666870;
	length 399.158;
	latitude 961.761794787;
	configuration 3132-LINECONFIG;
};

object overhead_line {
	phases B;
	from node69666870;
	name 6966;
	longitude 287.915287081;
	to node70286966;
	length 209.315;
	latitude 965.454669564;
	configuration 3132-LINECONFIG;
};

object overhead_line {
	phases B;
	from node70286966;
	name 7028;
	to node71947028;
	longitude 292.888186591;
	length 680.624;
	latitude 978.157880759;
	configuration 3132-LINECONFIG;
};

object overhead_line {
	phases B;
	from node71947028;
	name 7194;
	longitude 293.612679896;
	to node64467194;
	length 102.001;
	latitude 980.120365419;
	configuration 3132-LINECONFIG;
};

object overhead_line {
	phases B;
	from node64467194;
	name 6446;
	longitude 297.178205209;
	to node75596446;
	length 556.921;
	latitude 991.809918202;
	configuration 3132-LINECONFIG;
};

object overhead_line {
	phases B;
	from node75596446;
	name 7559;
	longitude 300.894196404;
	to node73127559;
	length 565.519;
	latitude 1003.45851489;
	configuration 3132-LINECONFIG;
};

object overhead_line {
	phases B;
	from node73127559;
	name 7312;
	longitude 303.033888076;
	to node76897312;
	length 331.016;
	latitude 1010.35961729;
	configuration 3132-LINECONFIG;
};

object overhead_line {
	phases B;
	from node76897312;
	name 7689;
	longitude 306.620278249;
	to node78207689;
	length 544.36;
	latitude 1021.54992098;
	configuration 3132-LINECONFIG;
};

object overhead_line {
	phases B;
	from node78207689;
	name 7820;
	longitude 308.2183982;
	to node72397820;
	length 283.682;
	latitude 1027.9525942;
	configuration 3132-LINECONFIG;
};

object overhead_line {
	phases B;
	from node72397820;
	name 7239;
	longitude 311.704323615;
	to node78577239;
	length 649.847;
	latitude 1042.9333667;
	configuration 3132-LINECONFIG;
};

object overhead_line {
	phases B;
	from node78577239;
	name 7857;
	to node79487857;
	longitude 312.995953744;
	length 224.426;
	latitude 1047.94708228;
	configuration 3132-LINECONFIG;
};

object overhead_line {
	phases B;
	from node79487857;
	name 7948;
	longitude 314.511258226;
	to node80677948;
	length 292.044;
	latitude 1054.76627749;
	configuration 3132-LINECONFIG;
};

object overhead_line {
	phases B;
	from node80677948;
	name 8067;
	longitude 315.135331375;
	to nodeT121281568288067;
	length 118.798;
	latitude 1057.52739605;
	configuration 3132-LINECONFIG;
};

object overhead_line {
	phases B;
	from node72397820;
	name 7241;
	longitude 310.396733547;
	to node72407241;
	length 284.224;
	latitude 1022.96044324;
	configuration 3132-LINECONFIG;
};

object overhead_line {
	phases B;
	from node72407241;
	name 7240;
	longitude 312.877710782;
	to nodeT121280900707240;
	length 288.159;
	latitude 1026.97413578;
	configuration 3132-LINECONFIG;
};

object overhead_line {
	phases B;
	from node73127559;
	name 7644;
	longitude 298.664103985;
	to node76177644;
	length 231.757;
	latitude 1001.7144794;
	configuration 3132-LINECONFIG;
};

object overhead_line {
	phases B;
	from node76177644;
	name 7617;
	longitude 297.178205209;
	to nodeT121280857587617;
	length 173.139;
	latitude 999.280992958;
	configuration 3132-LINECONFIG;
};

object overhead_line {
	phases B;
	from node64467194;
	name 6447;
	longitude 292.402379339;
	to node64506447;
	length 124.05;
	latitude 980.87805322;
	configuration 3132-LINECONFIG;
};

object overhead_line {
	phases B;
	from node64506447;
	name 6450;
	longitude 289.014850526;
	to node61786450;
	length 345.269;
	latitude 982.748381665;
	configuration 3132-LINECONFIG;
};

object overhead_line {
	phases B;
	from node61786450;
	name 6178;
	longitude 286.278612046;
	to node61796178;
	length 371.527;
	latitude 975.877996337;
	configuration 3132-LINECONFIG;
};

object overhead_line {
	phases B;
	from node61796178;
	name 6179;
	longitude 285.275399041;
	to node72606179;
	length 142.195;
	latitude 978.632293883;
	configuration 3132-LINECONFIG;
};

object overhead_line {
	phases B;
	from node72606179;
	name 7260;
	longitude 285.093677415;
	to nodeF68507260;
	length 29.6272;
	latitude 979.271591285;
	configuration 3132-LINECONFIG;
};

object fuse {
	phases B;
	from nodeF68507260;
	name F6850;
	current_limit 9999.0 A;
	longitude 285.093677415;
	to node7261F6850;
	latitude 979.271591285;
};

object overhead_line {
	phases B;
	from node7261F6850;
	name 7261;
	longitude 283.560207981;
	to node61747261;
	length 250.015;
	latitude 984.666498886;
	configuration 3132-LINECONFIG;
};

object overhead_line {
	phases B;
	from node61747261;
	name 6174;
	to nodeT121280214266174;
	longitude 283.560207981;
	length 333;
	latitude 975.574250274;
	configuration 3132-LINECONFIG;
};

object overhead_line {
	phases B;
	from node61747261;
	name 7196;
	longitude 281.703616104;
	to nodeT121280215757196;
	length 300.06;
	latitude 978.226145917;
	configuration 3132-LINECONFIG;
};

object overhead_line {
	phases B;
	from node61747261;
	name 7383;
	longitude 281.651374527;
	to node75377383;
	length 330.446;
	latitude 992.035176737;
	configuration 3132-LINECONFIG;
};

object overhead_line {
	phases B;
	from node75377383;
	name 7537;
	to node75387537;
	longitude 278.740583625;
	length 300.235;
	latitude 989.994197886;
	configuration 3132-LINECONFIG;
};

object overhead_line {
	phases B;
	from node75387537;
	name 7538;
	longitude 278.432678171;
	to node75607538;
	length 74.4758;
	latitude 991.846156402;
	configuration 3132-LINECONFIG;
};

object overhead_line {
	phases B;
	from node75607538;
	name 7560;
	longitude 277.773088938;
	to nodeT121280247957560;
	length 162;
	latitude 995.887004694;
	configuration 3132-LINECONFIG;
};

object overhead_line {
	phases B;
	from node75387537;
	name 7401;
	longitude 277.070439888;
	to node73867401;
	length 200.394;
	latitude 986.963453345;
	configuration 3132-LINECONFIG;
};

object overhead_line {
	phases B;
	from node73867401;
	name 7386;
	longitude 275.236058852;
	to node65247386;
	length 201.068;
	latitude 984.704041975;
	configuration 3132-LINECONFIG;
};

object overhead_line {
	phases B;
	from node65247386;
	name 6524;
	longitude 271.487850847;
	to node65256524;
	length 385.043;
	latitude 982.253502151;
	configuration 3132-LINECONFIG;
};

object overhead_line {
	phases B;
	from node65256524;
	name 6525;
	to node73046525;
	longitude 270.912259324;
	length 76.2809;
	latitude 983.622111742;
	configuration 3132-LINECONFIG;
};

object overhead_line {
	phases B;
	from node73046525;
	name 7304;
	longitude 270.561989346;
	to node73037304;
	length 202.1;
	latitude 989.05692721;
	configuration 3132-LINECONFIG;
};

object overhead_line {
	phases B;
	from node73037304;
	name 7303;
	longitude 270.225308714;
	to node72017303;
	length 194.261;
	latitude 994.280936074;
	configuration 3132-LINECONFIG;
};

object overhead_line {
	phases B;
	from node72017303;
	name 7201;
	longitude 270.02082148;
	to node72027201;
	length 170.95;
	latitude 998.915129492;
	configuration 3132-LINECONFIG;
};

object overhead_line {
	phases B;
	from node72027201;
	name 7202;
	longitude 269.746696937;
	to nodeT121432061657202;
	length 229.166;
	latitude 1005.12747086;
	configuration 3132-LINECONFIG;
};

object overhead_line {
	phases B;
	from node65256524;
	name 6518;
	longitude 267.600119556;
	to node65196518;
	length 388.731;
	latitude 981.799572072;
	configuration 3132-LINECONFIG;
};

object overhead_line {
	phases B;
	from node65196518;
	name 6519;
	longitude 264.653356169;
	to node72776519;
	length 351.455;
	latitude 987.041952532;
	configuration 3132-LINECONFIG;
};

object overhead_line {
	phases B;
	from node72776519;
	name 7277;
	longitude 261.678749345;
	to node61837277;
	length 405.304;
	latitude 979.516262984;
	configuration 3132-LINECONFIG;
};

object overhead_line {
	phases B;
	from node61837277;
	name 6183;
	longitude 260.568863446;
	to node71196183;
	length 166.248;
	latitude 976.133971945;
	configuration 3132-LINECONFIG;
};

object overhead_line {
	phases B;
	from node71196183;
	name 7119;
	to node71087119;
	longitude 258.885887363;
	length 249.982;
	latitude 971.082731599;
	configuration 3132-LINECONFIG;
};

object overhead_line {
	phases B;
	from node71087119;
	name 7108;
	longitude 255.151126959;
	to nodeT121432008387108;
	length 373.416;
	latitude 970.659506934;
	configuration 3132-LINECONFIG;
};

object overhead_line {
	phases B;
	from node61837277;
	name 7278;
	longitude 259.844682351;
	to nodeT121432026547278;
	length 212.049;
	latitude 982.430966914;
	configuration 3132-LINECONFIG;
};

object overhead_line {
	phases B;
	from node72776519;
	name 7403;
	longitude 264.570456996;
	to node75527403;
	length 144.987;
	latitude 990.994215925;
	configuration 3132-LINECONFIG;
};

object overhead_line {
	phases B;
	from node75527403;
	name 7552;
	longitude 264.51220524;
	to node75947552;
	length 109.575;
	latitude 993.981836235;
	configuration 3132-LINECONFIG;
};

object overhead_line {
	phases B;
	from node75947552;
	name 7594;
	longitude 264.472232691;
	to nodeT121432044917594;
	length 75.1855;
	latitude 996.031809236;
	configuration 3132-LINECONFIG;
};

object overhead_line {
	phases B;
	from node65256524;
	name 7181;
	longitude 271.987425852;
	to nodeT121432010437181;
	length 215.97;
	latitude 976.516235516;
	configuration 3132-LINECONFIG;
};

object overhead_line {
	phases B;
	from node65247386;
	name 7385;
	longitude 275.362756512;
	to nodeT121280238477385;
	length 102.038;
	latitude 987.468566887;
	configuration 3132-LINECONFIG;
};

object overhead_line {
	phases B;
	from node68706513;
	name 6871;
	longitude 282.631755938;
	to node69356871;
	length 175.538;
	latitude 958.352206346;
	configuration 3132-LINECONFIG;
};

object overhead_line {
	phases B;
	from node69356871;
	name 6935;
	longitude 282.054917411;
	to nodeT121280185536935;
	length 108.663;
	latitude 960.867586662;
	configuration 3132-LINECONFIG;
};

object overhead_line {
	phases B;
	from node60736219;
	name 6058;
	longitude 262.299380861;
	to node63076058;
	length 423.206;
	latitude 901.535848654;
	configuration 3132-LINECONFIG;
};

object overhead_line {
	phases B;
	from node63076058;
	name 6307;
	longitude 262.677894467;
	to node63526307;
	length 171.228;
	latitude 906.095639149;
	configuration 3132-LINECONFIG;
};

object overhead_line {
	phases B;
	from node63526307;
	name 6352;
	to node57396352;
	longitude 263.323557093;
	length 191.443;
	latitude 911.017190184;
	configuration 3132-LINECONFIG;
};

object overhead_line {
	phases B;
	from node57396352;
	name 5739;
	longitude 264.481302031;
	to nodeT121431914015739;
	length 338.614;
	latitude 919.706715498;
	configuration 3132-LINECONFIG;
};

object overhead_line {
	phases B;
	from node63076058;
	name 6308;
	longitude 260.407136038;
	to nodeT121431886616308;
	length 268.993;
	latitude 906.761164072;
	configuration 3132-LINECONFIG;
};

object overhead_line {
	phases B;
	from node60736219;
	name 6048;
	longitude 263.186542477;
	to nodeT121431864176048;
	length 211.917;
	latitude 893.088658574;
	configuration 3132-LINECONFIG;
};

object overhead_line {
	phases B;
	from node621967645;
	name 6221;
	longitude 263.42352757;
	to nodeSW1514-Ax16221;
	length 14.8412;
	latitude 882.468808856;
	configuration 3132-LINECONFIG;
};

object overhead_line {
	phases B;
	from node53615785;
	name 5362;
	longitude 256.175307468;
	to node57885362;
	length 159.353;
	latitude 870.535507635;
	configuration 3132-LINECONFIG;
};

object overhead_line {
	phases B;
	from node57885362;
	name 5788;
	longitude 256.005379529;
	to nodeF89645788;
	length 19.2207;
	latitude 870.781652524;
	configuration 3132-LINECONFIG;
};

object fuse {
	phases B;
	from nodeF89645788;
	name F8964;
	current_limit 9999.0 A;
	longitude 256.005379529;
	to node6104F8964;
	latitude 870.781652524;
};

object overhead_line {
	phases B;
	from node6104F8964;
	name 6104;
	longitude 252.073291318;
	to nodeT121431230036104;
	length 444.764;
	latitude 876.477548095;
	configuration 3132-LINECONFIG;
};

object overhead_line {
	phases ACB;
	from node53615785;
	name 5977;
	longitude 258.815507106;
	to node59735977;
	length 302.275;
	latitude 860.252107533;
	configuration 6396-LINECONFIG;
};

object overhead_line {
	phases ACB;
	from node59735977;
	name 5973;
	longitude 259.016851475;
	to nodeSW1118-Bx15973;
	length 24.9998;
	latitude 859.846729487;
	configuration 6396-LINECONFIG;
};

object switch {
	status CLOSED;
	phases ACB;
	from nodeSW1118-Bx15973;
	name SW1118-Bx1;
	longitude 259.016851475;
	to nodeSW1118-Ax1SW1118-Bx1;
	latitude 859.846729487;
};

object switch {
	status CLOSED;
	phases ACB;
	from nodeSW1118-Ax1SW1118-Bx1;
	name SW1118-Ax1;
	longitude 259.016851475;
	to node5942SW1118-Ax1;
	latitude 859.846729487;
};

object overhead_line {
	phases ACB;
	from node5942SW1118-Ax1;
	name 5942;
	to node59095942;
	longitude 262.307519073;
	length 408.588;
	latitude 853.221305826;
	configuration 6396-LINECONFIG;
};

object overhead_line {
	phases ACB;
	from node59095942;
	name 5909;
	longitude 265.120397878;
	to node58605909;
	length 342.89;
	latitude 847.856057075;
	configuration 6396-LINECONFIG;
};

object overhead_line {
	phases ACB;
	from node58605909;
	name 5860;
	longitude 269.192375351;
	to node57685860;
	length 493.549;
	latitude 840.224575934;
	configuration 6396-LINECONFIG;
};

object overhead_line {
	phases ACB;
	from node57685860;
	name 5768;
	longitude 272.062502689;
	to node53445768;
	length 344.097;
	latitude 835.029972591;
	configuration 6396-LINECONFIG;
};

object overhead_line {
	phases ACB;
	from node53445768;
	name 5344;
	longitude 273.93347574;
	to node55845344;
	length 221.105;
	latitude 831.804684922;
	configuration 6396-LINECONFIG;
};

object overhead_line {
	phases ACB;
	from node55845344;
	name 5584;
	longitude 280.730433832;
	to node55515584;
	length 836.246;
	latitude 818.476899906;
	configuration 6396-LINECONFIG;
};

object overhead_line {
	phases ACB;
	from node55515584;
	name 5551;
	longitude 283.204529636;
	to node46295551;
	length 320.791;
	latitude 812.89320198;
	configuration 6396-LINECONFIG;
};

object overhead_line {
	phases ACB;
	from node46295551;
	name 4629;
	longitude 285.824713671;
	to node46084629;
	length 326.327;
	latitude 807.572322334;
	configuration 6396-LINECONFIG;
};

object overhead_line {
	phases ACB;
	from node46084629;
	name 4608;
	to node48784608;
	longitude 288.617884197;
	length 341.999;
	latitude 802.17295516;
	configuration 6396-LINECONFIG;
};

object overhead_line {
	phases ACB;
	from node48784608;
	name 4878;
	longitude 291.064139617;
	to node57134878;
	length 308.628;
	latitude 797.026138928;
	configuration 6396-LINECONFIG;
};

object overhead_line {
	phases ACB;
	from node57134878;
	name 5713;
	longitude 294.803584992;
	to node57125713;
	length 449.707;
	latitude 790.189872021;
	configuration 6396-LINECONFIG;
};

object overhead_line {
	phases ACB;
	from node57125713;
	name 5712;
	longitude 299.022656978;
	to node46065712;
	length 617.926;
	latitude 802.527896345;
	configuration 6396-LINECONFIG;
};

object overhead_line {
	phases ACB;
	from node46065712;
	name 4610;
	longitude 302.705423861;
	to node55534610;
	length 543.094;
	latitude 813.435875266;
	configuration 6396-LINECONFIG;
};

object overhead_line {
	phases ACB;
	from node55534610;
	name 5553;
	longitude 304.38745904;
	to node55835553;
	length 247.431;
	latitude 818.394976052;
	configuration 6396-LINECONFIG;
};

object overhead_line {
	phases ACB;
	from node55835553;
	name 5583;
	longitude 307.381147283;
	to node53245583;
	length 465.903;
	latitude 828.149353235;
	configuration 6396-LINECONFIG;
};

object overhead_line {
	phases ACB;
	from node53245583;
	name 5324;
	to node57565324;
	longitude 312.248316637;
	length 488.331;
	latitude 826.91043129;
	configuration 6396-LINECONFIG;
};

object overhead_line {
	phases ACB;
	from node57565324;
	name 5756;
	longitude 318.353000068;
	to node57525756;
	length 611.529;
	latitude 825.671516008;
	configuration 6396-LINECONFIG;
};

object overhead_line {
	phases ACB;
	from node57525756;
	name 5752;
	longitude 324.487406301;
	to node49075752;
	length 614.719;
	latitude 824.350675207;
	configuration 6396-LINECONFIG;
};

object overhead_line {
	phases ACB;
	from node49075752;
	name 4907;
	longitude 327.678484059;
	to node49064907;
	length 320.042;
	latitude 823.575922365;
	configuration 6396-LINECONFIG;
};

object overhead_line {
	phases ACB;
	from node49064907;
	name 4906;
	longitude 328.616630473;
	to node58364906;
	length 470.062;
	latitude 836.152847263;
	configuration 6396-LINECONFIG;
};

object overhead_line {
	phases ACB;
	from node58364906;
	name 5836;
	longitude 329.437154065;
	to node59075836;
	length 427.066;
	latitude 847.596680117;
	configuration 6396-LINECONFIG;
};

object overhead_line {
	phases ACB;
	from node59075836;
	name 5907;
	longitude 330.031514187;
	to node59595907;
	length 308.763;
	latitude 855.869805117;
	configuration 6396-LINECONFIG;
};

object overhead_line {
	phases ACB;
	from node59595907;
	name 5959;
	longitude 330.584582659;
	to node57835959;
	length 339.772;
	latitude 865.023499535;
	configuration 6396-LINECONFIG;
};

object overhead_line {
	phases ACB;
	from node57835959;
	name 5783;
	to node59985783;
	longitude 331.120441135;
	length 236.269;
	latitude 871.306840806;
	configuration 6396-LINECONFIG;
};

object overhead_line {
	phases ACB;
	from node59985783;
	name 5998;
	longitude 332.347637035;
	to node60825998;
	length 224.859;
	latitude 876.453657038;
	configuration 6396-LINECONFIG;
};

object overhead_line {
	phases ACB;
	from node60825998;
	name 6082;
	longitude 332.483123597;
	to nodeSW1096-Bx16082;
	length 25.0001;
	latitude 877.027572346;
	configuration 6396-LINECONFIG;
};

object switch {
	status CLOSED;
	phases ACB;
	from nodeSW1096-Bx16082;
	name SW1096-Bx1;
	longitude 332.483123597;
	to nodeSW1096-Ax1SW1096-Bx1;
	latitude 877.027572346;
};

object switch {
	status CLOSED;
	phases ACB;
	from nodeSW1096-Ax1SW1096-Bx1;
	name SW1096-Ax1;
	longitude 332.483123597;
	to node6086SW1096-Ax1;
	latitude 877.027572346;
};

object overhead_line {
	phases ACB;
	from node6086SW1096-Ax1;
	name 6086;
	longitude 333.694014968;
	to node62186086;
	length 223.433;
	latitude 882.156793593;
	configuration 6396-LINECONFIG;
};

object overhead_line {
	phases ACB;
	from node62186086;
	name 6218;
	longitude 335.47427262;
	to node62326218;
	length 336.255;
	latitude 889.948691111;
	configuration 6396-LINECONFIG;
};

object overhead_line {
	phases ACB;
	from node62326218;
	name 6232;
	longitude 337.161313532;
	to node62526232;
	length 316.163;
	latitude 897.252535132;
	configuration 6396-LINECONFIG;
};

object overhead_line {
	phases ACB;
	from node62526232;
	name 6252;
	to node63296252;
	longitude 338.78578797;
	length 301.626;
	latitude 904.194586969;
	configuration 6396-LINECONFIG;
};

object overhead_line {
	phases ACB;
	from node63296252;
	name 6329;
	longitude 342.508037401;
	to node63756329;
	length 412.523;
	latitude 909.071782223;
	configuration 6396-LINECONFIG;
};

object overhead_line {
	phases ACB;
	from node63756329;
	name 6375;
	longitude 346.134560811;
	to node63966375;
	length 399.497;
	latitude 913.669097487;
	configuration 6396-LINECONFIG;
};

object line_configuration {
	name 6396-LINECONFIG;
	spacing 71752-LINESPACING;
	conductor_C 6396_conductor_C;
	conductor_B 6396_conductor_C;
	conductor_A 6396_conductor_C;
};

object overhead_line_conductor {
	diameter 0.368;
	name 6396_conductor_C;
	geometric_mean_radius 0.01113;
	resistance 0.607;
};

object overhead_line {
	phases ACB;
	from node63966375;
	name 6396;
	longitude 348.865163639;
	to node61316396;
	length 299.127;
	latitude 917.020671452;
	configuration 6396-LINECONFIG;
};

object overhead_line {
	phases ACB;
	from node61316396;
	name 6131;
	longitude 353.757051895;
	to node64616131;
	length 539.577;
	latitude 923.266482959;
	configuration 6396-LINECONFIG;
};

object overhead_line {
	phases C;
	from node64616131;
	name 6461;
	longitude 353.694872169;
	to nodeF63486461;
	length 23.211;
	latitude 923.877121442;
	configuration 71710-LINECONFIG;
};

object fuse {
	phases C;
	from nodeF63486461;
	name F6348;
	current_limit 9999.0 A;
	longitude 353.694872169;
	to node6071F6348;
	latitude 923.877121442;
};

object overhead_line {
	phases C;
	from node6071F6348;
	name 6071;
	longitude 353.293447542;
	to node64886071;
	length 149.851;
	latitude 927.819424121;
	configuration 71710-LINECONFIG;
};

object overhead_line {
	phases C;
	from node64886071;
	name 6488;
	to nodeT121281940856488;
	longitude 351.749994135;
	length 495.714;
	latitude 940.68305669;
	configuration 71710-LINECONFIG;
};

object overhead_line {
	phases ACB;
	from node64616131;
	name 6558;
	longitude 356.653762835;
	to node64816558;
	length 319.052;
	latitude 926.935466679;
	configuration 6396-LINECONFIG;
};

object overhead_line {
	phases ACB;
	from node64816558;
	name 6481;
	longitude 359.912721955;
	to node66426481;
	length 361.877;
	latitude 931.24950227;
	configuration 6396-LINECONFIG;
};

object overhead_line {
	phases ACB;
	from node66426481;
	name 6642;
	longitude 363.273037249;
	to node66836642;
	length 366.966;
	latitude 935.297341549;
	configuration 6396-LINECONFIG;
};

object overhead_line {
	phases ACB;
	from node66836642;
	name 6683;
	longitude 370.685625401;
	to node67616683;
	length 816.134;
	latitude 944.666043818;
	configuration 6396-LINECONFIG;
};

object overhead_line {
	phases ACB;
	from node67616683;
	name 6761;
	longitude 373.049604845;
	to node67876761;
	length 242.619;
	latitude 946.184820769;
	configuration 6396-LINECONFIG;
};

object overhead_line {
	phases ACB;
	from node67876761;
	name 6787;
	to node68286787;
	longitude 376.757149285;
	length 380.686;
	latitude 948.587583476;
	configuration 6396-LINECONFIG;
};

object overhead_line {
	phases ACB;
	from node68286787;
	name 6828;
	longitude 381.201385793;
	to node66096828;
	length 457.847;
	latitude 951.642225736;
	configuration 6396-LINECONFIG;
};

object overhead_line {
	phases ACB;
	from node66096828;
	name 6609;
	longitude 384.607996025;
	to node69706609;
	length 508.251;
	latitude 961.949510233;
	configuration 6396-LINECONFIG;
};

object overhead_line {
	phases ACB;
	from node69706609;
	name 6970;
	longitude 386.091080031;
	to node70426970;
	length 219.624;
	latitude 966.376181754;
	configuration 6396-LINECONFIG;
};

object overhead_line {
	phases ACB;
	from node70426970;
	name 7042;
	longitude 388.621793838;
	to node71677042;
	length 383.409;
	latitude 974.246578459;
	configuration 6396-LINECONFIG;
};

object overhead_line {
	phases ACB;
	from node71677042;
	name 7167;
	longitude 391.789609874;
	to nodeSW1078-Bx17167;
	length 462.4;
	latitude 983.452072947;
	configuration 6396-LINECONFIG;
};

object switch {
	status CLOSED;
	phases ACB;
	from nodeSW1078-Bx17167;
	name SW1078-Bx1;
	longitude 391.789609874;
	to nodeSW1078-Ax1SW1078-Bx1;
	latitude 983.452072947;
};

object switch {
	status CLOSED;
	phases ACB;
	from nodeSW1078-Ax1SW1078-Bx1;
	name SW1078-Ax1;
	longitude 391.789609874;
	to node7301SW1078-Ax1;
	latitude 983.452072947;
};

object overhead_line {
	phases ACB;
	from node7301SW1078-Ax1;
	name 7301;
	to node65637301;
	longitude 391.994932314;
	length 29.9707;
	latitude 984.048737756;
	configuration 6396-LINECONFIG;
};

object overhead_line {
	phases ACB;
	from node65637301;
	name 6563;
	longitude 394.034205051;
	to node71886563;
	length 324.434;
	latitude 977.154468033;
	configuration 71752-LINECONFIG;
};

object overhead_line {
	phases ACB;
	from node71886563;
	name 7188;
	longitude 393.934875488;
	to node71747188;
	length 18.6373;
	latitude 976.723712415;
	configuration 71752-LINECONFIG;
};

object overhead_line {
	phases ACB;
	from node71747188;
	name 7174;
	longitude 394.045687139;
	to nodeSW1054-Bx17174;
	length 18.8041;
	latitude 976.308680308;
	configuration 71752-LINECONFIG;
};

object overhead_line {
	phases ACB;
	from node71886563;
	name 68044;
	longitude 394.125704945;
	to nodeR111368044;
	length 14.6812;
	latitude 976.840781269;
	configuration 71752-LINECONFIG;
};

object fuse {
	phases ACB;
	from nodeR111368044;
	name R1113;
	current_limit 9999.0 A;
	longitude 394.125704945;
	to node68045R1113;
	latitude 976.840781269;
};

object overhead_line {
	phases ACB;
	from node68045R1113;
	name 68045;
	longitude 394.225693141;
	to node618568045;
	length 16.0434;
	latitude 976.497990585;
	configuration 71752-LINECONFIG;
};

object overhead_line {
	phases ACB;
	from node618568045;
	name 6185;
	to nodeSW1054-Ax16185;
	longitude 394.045687139;
	length 19.2726;
	latitude 976.308680308;
	configuration 71752-LINECONFIG;
};

object overhead_line {
	phases ACB;
	from node618568045;
	name 7101;
	longitude 396.042198216;
	to node61567101;
	length 291.463;
	latitude 970.270424009;
	configuration 71752-LINECONFIG;
};

object overhead_line {
	phases ACB;
	from node61567101;
	name 6156;
	longitude 397.687632215;
	to node68806156;
	length 405.44;
	latitude 960.150861621;
	configuration 71752-LINECONFIG;
};

object overhead_line {
	phases ACB;
	from node68806156;
	name 6880;
	longitude 398.429017197;
	to node68176880;
	length 178.241;
	latitude 955.724178441;
	configuration 71752-LINECONFIG;
};

object overhead_line {
	phases ACB;
	from node68176880;
	name 6817;
	longitude 399.70375565;
	to node64946817;
	length 309.989;
	latitude 948.007383756;
	configuration 71752-LINECONFIG;
};

object overhead_line {
	phases ACB;
	from node64946817;
	name 6494;
	longitude 402.971165803;
	to node65326494;
	length 784.503;
	latitude 928.529341467;
	configuration 71752-LINECONFIG;
};

object overhead_line {
	phases ACB;
	from node65326494;
	name 6532;
	longitude 404.467382756;
	to node64086532;
	length 361.361;
	latitude 919.546304117;
	configuration 71752-LINECONFIG;
};

object overhead_line {
	phases ACB;
	from node64086532;
	name 6408;
	to node63226408;
	longitude 405.255063288;
	length 186.534;
	latitude 914.928492483;
	configuration 71752-LINECONFIG;
};

object overhead_line {
	phases ACB;
	from node63226408;
	name 6322;
	longitude 407.271190388;
	to node62646322;
	length 473.473;
	latitude 903.228705674;
	configuration 71752-LINECONFIG;
};

object overhead_line {
	phases ACB;
	from node62646322;
	name 6264;
	longitude 408.105480512;
	to node58156264;
	length 209.538;
	latitude 897.979499198;
	configuration 71752-LINECONFIG;
};

object overhead_line {
	phases C;
	from node58156264;
	name 5815;
	longitude 408.031262098;
	to nodeF54105815;
	length 29.0688;
	latitude 897.212053989;
	configuration 8736-LINECONFIG;
};

object overhead_line {
	phases C;
	from node58156264;
	name 5816;
	longitude 407.016557839;
	to nodeT121131242995816;
	length 426.481;
	latitude 886.719985438;
	configuration 8736-LINECONFIG;
};

object overhead_line {
	phases ACB;
	from node58156264;
	name 6028;
	to node57926028;
	longitude 409.519112945;
	length 322.22;
	latitude 890.07154941;
	configuration 71752-LINECONFIG;
};

object overhead_line {
	phases ACB;
	from node57926028;
	name 5792;
	longitude 410.538910917;
	to node60845792;
	length 253.038;
	latitude 883.747262035;
	configuration 71752-LINECONFIG;
};

object overhead_line {
	phases ACB;
	from node60845792;
	name 6084;
	longitude 411.720742395;
	to node59616084;
	length 280.778;
	latitude 876.791544841;
	configuration 71752-LINECONFIG;
};

object overhead_line {
	phases ACB;
	from node59616084;
	name 5961;
	longitude 415.053845391;
	to node59625961;
	length 809.979;
	latitude 856.630912588;
	configuration 71752-LINECONFIG;
};

object overhead_line {
	phases B;
	from node59625961;
	name 5962;
	longitude 415.153809758;
	to nodeF81345962;
	length 29.0289;
	latitude 857.375145001;
	configuration 3444-LINECONFIG;
};

object fuse {
	phases B;
	from nodeF81345962;
	name F8134;
	current_limit 9999.0 A;
	longitude 415.153809758;
	to node5963F8134;
	latitude 857.375145001;
};

object overhead_line {
	phases B;
	from node5963F8134;
	name 5963;
	longitude 415.538401362;
	to node59765963;
	length 111.684;
	latitude 860.2384555;
	configuration 3444-LINECONFIG;
};

object overhead_line {
	phases B;
	from node59765963;
	name 5976;
	longitude 419.490572383;
	to node58005976;
	length 972.27;
	latitude 884.498117157;
	configuration 3444-LINECONFIG;
};

object overhead_line {
	phases B;
	from node58005976;
	name 5800;
	to node60425800;
	longitude 420.558855645;
	length 302.804;
	latitude 892.235413208;
	configuration 3444-LINECONFIG;
};

object overhead_line {
	phases B;
	from node60425800;
	name 6042;
	longitude 421.178862132;
	to node63046042;
	length 322.871;
	latitude 900.887377112;
	configuration 3132-LINECONFIG;
};

object overhead_line {
	phases B;
	from node63046042;
	name 6304;
	longitude 419.822784329;
	to nodeT121131886356304;
	length 199.627;
	latitude 904.890840624;
	configuration 3132-LINECONFIG;
};

object overhead_line {
	phases B;
	from node60425800;
	name 6043;
	longitude 425.489211615;
	to nodeT121131883776043;
	length 741.565;
	latitude 907.372097521;
	configuration 3444-LINECONFIG;
};

object overhead_line {
	phases B;
	from node58005976;
	name 5801;
	to nodeT121131857545801;
	longitude 418.011245884;
	length 253.018;
	latitude 890.105689485;
	configuration 3444-LINECONFIG;
};

object overhead_line {
	phases ACB;
	from node59625961;
	name 5917;
	longitude 415.339452022;
	to node58345917;
	length 244.297;
	latitude 850.006257182;
	configuration 71752-LINECONFIG;
};

object overhead_line {
	phases ACB;
	from node58345917;
	name 5834;
	longitude 414.577728232;
	to node53235834;
	length 530.486;
	latitude 835.671618116;
	configuration 71752-LINECONFIG;
};

object overhead_line {
	phases ACB;
	from node53235834;
	name 5323;
	to node47305323;
	longitude 414.170755935;
	length 325.796;
	latitude 826.845584136;
	configuration 71752-LINECONFIG;
};

object overhead_line {
	phases ACB;
	from node47305323;
	name 4730;
	longitude 413.240115372;
	to node46054730;
	length 621.864;
	latitude 810.056997235;
	configuration 71752-LINECONFIG;
};

object overhead_line {
	phases ACB;
	from node46054730;
	name 4605;
	longitude 412.843456975;
	to node48734605;
	length 313.39;
	latitude 801.568852724;
	configuration 71752-LINECONFIG;
};

object overhead_line {
	phases ACB;
	from node48734605;
	name 4873;
	longitude 412.459624206;
	to node57014873;
	length 280.632;
	latitude 793.978322684;
	configuration 71752-LINECONFIG;
};

object overhead_line {
	phases ACB;
	from node57014873;
	name 5701;
	longitude 411.428254943;
	to node56615701;
	length 361.254;
	latitude 784.524278556;
	configuration 71752-LINECONFIG;
};

object overhead_line {
	phases ACB;
	from node56615701;
	name 5661;
	longitude 409.806913594;
	to node56375661;
	length 553.479;
	latitude 770.073607208;
	configuration 71752-LINECONFIG;
};

object overhead_line {
	phases ACB;
	from node56375661;
	name 5637;
	longitude 408.125190625;
	to node56395637;
	length 593.523;
	latitude 754.530768268;
	configuration 71752-LINECONFIG;
};

object overhead_line {
	phases A;
	from node56395637;
	name 5639;
	longitude 408.420452524;
	to nodeF51295639;
	length 29.5417;
	latitude 754.575597338;
	configuration 4824-LINECONFIG;
};

object fuse {
	phases A;
	from nodeF51295639;
	name F5129;
	current_limit 9999.0 A;
	longitude 408.420452524;
	to node5638F5129;
	latitude 754.575597338;
};

object overhead_line {
	phases A;
	from node5638F5129;
	name 5638;
	longitude 410.687810865;
	to nodeT121121601815638;
	length 226.854;
	latitude 754.919862852;
	configuration 4824-LINECONFIG;
};

object overhead_line {
	phases ACB;
	from node56395637;
	name 5601;
	longitude 406.674331371;
	to node56025601;
	length 472.884;
	latitude 742.240537717;
	configuration 71752-LINECONFIG;
};

object overhead_line {
	phases A;
	from node56025601;
	name 5602;
	longitude 406.951721587;
	to nodeF64895602;
	length 29.5326;
	latitude 742.519382828;
	configuration 4824-LINECONFIG;
};

object fuse {
	phases A;
	from nodeF64895602;
	name F6489;
	current_limit 9999.0 A;
	longitude 406.951721587;
	to node5603F6489;
	latitude 742.519382828;
};

...